Version 4
SHEET 1 1260 1544
WIRE -1280 -608 -1392 -608
WIRE -1296 -576 -1392 -576
WIRE -1040 -560 -1168 -560
WIRE -1312 -544 -1392 -544
WIRE -1280 -544 -1280 -608
WIRE -1264 -544 -1280 -544
WIRE -1216 -544 -1216 -576
WIRE -1296 -528 -1296 -576
WIRE -1264 -528 -1296 -528
WIRE -1328 -512 -1392 -512
WIRE -1312 -512 -1312 -544
WIRE -1264 -512 -1312 -512
WIRE -1040 -512 -1040 -560
WIRE -944 -512 -1040 -512
WIRE -848 -512 -848 -528
WIRE -848 -512 -944 -512
WIRE -1328 -496 -1328 -512
WIRE -1264 -496 -1328 -496
WIRE -1168 -496 -1168 -560
WIRE -768 -480 -1168 -480
WIRE -672 -480 -672 -496
WIRE -672 -480 -768 -480
WIRE -1264 -464 -1392 -464
WIRE -1264 -448 -1376 -448
WIRE -1376 -432 -1376 -448
WIRE -1376 -432 -1392 -432
WIRE -1264 -432 -1360 -432
WIRE -1264 -416 -1344 -416
WIRE -1360 -400 -1360 -432
WIRE -1360 -400 -1392 -400
WIRE -1168 -400 -1168 -464
WIRE -944 -400 -1168 -400
WIRE -848 -400 -944 -400
WIRE -944 -384 -944 -400
WIRE -1344 -368 -1344 -416
WIRE -1344 -368 -1392 -368
WIRE -1504 -320 -1504 -368
WIRE -1584 -288 -1584 -368
WIRE -1664 -256 -1664 -368
WIRE -1744 -224 -1744 -368
WIRE -1824 -192 -1824 -368
WIRE -1904 -160 -1904 -368
WIRE -1984 -128 -1984 -368
WIRE -2048 -96 -2048 -368
FLAG -1584 -464 0
FLAG -1584 -544 vdd
FLAG 448 80 A3
IOPIN 448 80 In
FLAG 560 224 0
FLAG 560 80 B3
IOPIN 560 80 In
FLAG -1392 -464 B0
IOPIN -1392 -464 In
FLAG -1392 -432 B1
IOPIN -1392 -432 In
FLAG -1392 -400 B2
IOPIN -1392 -400 In
FLAG -1392 -368 B3
IOPIN -1392 -368 In
FLAG -1392 -608 B0
IOPIN -1392 -608 In
FLAG -1392 -576 A1
IOPIN -1392 -576 In
FLAG -1392 -544 A2
IOPIN -1392 -544 In
FLAG -1392 -512 A3
IOPIN -1392 -512 In
FLAG -1216 -576 vdd
FLAG -1040 -560 a_gr_b
FLAG -768 -480 b_gr_a
FLAG -1168 -400 a_eq_b
FLAG 64 80 B1
IOPIN 64 80 In
FLAG 224 80 B0
IOPIN 224 80 In
FLAG 144 80 A0
IOPIN 144 80 In
FLAG -96 80 A2
IOPIN -96 80 In
FLAG -16 80 A1
IOPIN -16 80 In
FLAG -96 240 0
FLAG -16 240 0
FLAG 224 240 0
FLAG -176 240 0
FLAG 144 240 0
FLAG -176 80 B2
IOPIN -176 80 In
FLAG 64 240 0
FLAG 448 224 0
FLAG -1504 -240 0
FLAG -1584 -208 0
FLAG -1664 -176 0
FLAG -1744 -144 0
FLAG -1824 -112 0
FLAG -1664 -368 B1
IOPIN -1664 -368 In
FLAG -1504 -368 B0
IOPIN -1504 -368 In
FLAG -1584 -368 A0
IOPIN -1584 -368 In
FLAG -1824 -368 A2
IOPIN -1824 -368 In
FLAG -1744 -368 A1
IOPIN -1744 -368 In
FLAG -1904 -368 B2
IOPIN -1904 -368 In
FLAG -2048 -368 A3
IOPIN -2048 -368 In
FLAG -1984 -368 B3
IOPIN -1984 -368 In
FLAG -1904 -80 0
FLAG -1984 -48 0
FLAG -2048 -16 0
FLAG -944 -592 0
FLAG -848 -592 0
FLAG -848 -320 0
FLAG -944 -320 0
FLAG -768 -560 0
FLAG -672 -560 0
SYMBOL voltage -1584 -560 R0
WINDOW 123 0 0 Left 0
WINDOW 39 0 0 Left 0
SYMATTR InstName V1
SYMATTR Value 1
SYMBOL voltage 448 128 R0
WINDOW 123 0 0 Left 0
WINDOW 39 0 0 Left 0
WINDOW 3 24 44 Left 2
SYMATTR Value 1
SYMATTR InstName V2
SYMBOL voltage 560 128 R0
WINDOW 123 0 0 Left 0
WINDOW 39 0 0 Left 0
SYMATTR InstName V4
SYMATTR Value PULSE(0 1 0 10p 10p 1n 2n)
SYMBOL comp4 -1216 -480 R0
SYMATTR InstName X1
SYMBOL voltage -96 144 R0
WINDOW 123 0 0 Left 0
WINDOW 39 0 0 Left 0
SYMATTR InstName V10
SYMATTR Value 1
SYMBOL voltage -16 144 R0
WINDOW 123 0 0 Left 0
WINDOW 39 0 0 Left 0
SYMATTR InstName V11
SYMATTR Value 1
SYMBOL voltage 224 144 R0
WINDOW 123 0 0 Left 0
WINDOW 39 0 0 Left 0
SYMATTR InstName V12
SYMATTR Value 1
SYMBOL voltage -176 144 R0
WINDOW 123 0 0 Left 0
WINDOW 39 0 0 Left 0
SYMATTR InstName V13
SYMATTR Value 1
SYMBOL voltage 144 144 R0
WINDOW 123 0 0 Left 0
WINDOW 39 0 0 Left 0
SYMATTR InstName V15
SYMATTR Value 1
SYMBOL voltage 64 144 R0
WINDOW 123 0 0 Left 0
WINDOW 39 0 0 Left 0
SYMATTR InstName V16
SYMATTR Value 1
SYMBOL voltage -1504 -336 R0
WINDOW 123 0 0 Left 0
WINDOW 39 0 0 Left 0
SYMATTR InstName V3
SYMATTR Value PULSE(0 1 0 10p 10p 1n 2n)
SYMBOL voltage -1584 -304 R0
WINDOW 123 0 0 Left 0
WINDOW 39 0 0 Left 0
SYMATTR InstName V5
SYMATTR Value PULSE(0 1 0 10p 10p 2n 4n)
SYMBOL voltage -1664 -272 R0
WINDOW 123 0 0 Left 0
WINDOW 39 0 0 Left 0
SYMATTR InstName V6
SYMATTR Value PULSE(0 1 0 10p 10p 4n 8n)
SYMBOL voltage -1744 -240 R0
WINDOW 123 0 0 Left 0
WINDOW 39 0 0 Left 0
SYMATTR InstName V7
SYMATTR Value PULSE(0 1 0 10p 10p 8n 16n)
SYMBOL voltage -1824 -208 R0
WINDOW 123 0 0 Left 0
WINDOW 39 0 0 Left 0
SYMATTR InstName V8
SYMATTR Value PULSE(0 1 0 10p 10p 16n 32n)
SYMBOL voltage -1904 -176 R0
WINDOW 123 0 0 Left 0
WINDOW 39 0 0 Left 0
SYMATTR InstName V9
SYMATTR Value PULSE(0 1 0 10p 10p 32n 64n)
SYMBOL voltage -1984 -144 R0
WINDOW 123 0 0 Left 0
WINDOW 39 0 0 Left 0
SYMATTR InstName V14
SYMATTR Value PULSE(0 1 0 10p 10p 64n 128n)
SYMBOL voltage -2048 -112 R0
WINDOW 123 0 0 Left 0
WINDOW 39 0 0 Left 0
SYMATTR InstName V17
SYMATTR Value PULSE(0 1 0 10p 10p 128n 256n)
SYMBOL res -960 -608 R0
SYMATTR InstName R1
SYMATTR Value 100k
SYMBOL cap -864 -592 R0
SYMATTR InstName C1
SYMATTR Value 100f
SYMBOL res -832 -304 R180
WINDOW 0 36 76 Left 2
WINDOW 3 36 40 Left 2
SYMATTR InstName R2
SYMATTR Value 100k
SYMBOL cap -928 -320 R180
WINDOW 0 24 56 Left 2
WINDOW 3 24 8 Left 2
SYMATTR InstName C2
SYMATTR Value 100f
SYMBOL res -784 -576 R0
SYMATTR InstName R3
SYMATTR Value 100k
SYMBOL cap -688 -560 R0
SYMATTR InstName C3
SYMATTR Value 100f
TEXT -2024 -560 Left 2 !.tran 0 256n 0n
TEXT -2024 -584 Left 2 !.include 90nm_bulk.txt
