Version 4
SHEET 1 1260 1544
WIRE -1280 -608 -1392 -608
WIRE -1296 -576 -1392 -576
WIRE -1312 -544 -1392 -544
WIRE -1280 -544 -1280 -608
WIRE -1264 -544 -1280 -544
WIRE -1216 -544 -1216 -576
WIRE -1296 -528 -1296 -576
WIRE -1264 -528 -1296 -528
WIRE -1328 -512 -1392 -512
WIRE -1312 -512 -1312 -544
WIRE -1264 -512 -1312 -512
WIRE -1328 -496 -1328 -512
WIRE -1264 -496 -1328 -496
WIRE -1040 -496 -1168 -496
WIRE -1040 -480 -1168 -480
WIRE -1264 -464 -1392 -464
WIRE -1040 -464 -1168 -464
WIRE -1264 -448 -1376 -448
WIRE -1376 -432 -1376 -448
WIRE -1376 -432 -1392 -432
WIRE -1264 -432 -1360 -432
WIRE -1264 -416 -1344 -416
WIRE -1360 -400 -1360 -432
WIRE -1360 -400 -1392 -400
WIRE -1344 -368 -1344 -416
WIRE -1344 -368 -1392 -368
WIRE -1392 -144 -1392 -208
WIRE -1280 -144 -1280 -208
WIRE -2016 -128 -2016 -208
WIRE -1936 -128 -1936 -208
WIRE -1856 -128 -1856 -208
WIRE -1776 -128 -1776 -208
WIRE -1696 -128 -1696 -208
WIRE -1616 -128 -1616 -208
FLAG -1584 -464 0
FLAG -1584 -544 vdd
FLAG -1392 -208 A3
IOPIN -1392 -208 In
FLAG -1280 -64 0
FLAG -1280 -208 B3
IOPIN -1280 -208 In
FLAG -1392 -464 B0
IOPIN -1392 -464 In
FLAG -1392 -432 B1
IOPIN -1392 -432 In
FLAG -1392 -400 B2
IOPIN -1392 -400 In
FLAG -1392 -368 B3
IOPIN -1392 -368 In
FLAG -1392 -608 B0
IOPIN -1392 -608 In
FLAG -1392 -576 A1
IOPIN -1392 -576 In
FLAG -1392 -544 A2
IOPIN -1392 -544 In
FLAG -1392 -512 A3
IOPIN -1392 -512 In
FLAG -1216 -576 vdd
FLAG -1040 -496 a_gr_b
FLAG -1040 -480 b_gr_a
FLAG -1040 -464 a_eq_b
FLAG -1776 -208 B1
IOPIN -1776 -208 In
FLAG -1616 -208 B0
IOPIN -1616 -208 In
FLAG -1696 -208 A0
IOPIN -1696 -208 In
FLAG -1936 -208 A2
IOPIN -1936 -208 In
FLAG -1856 -208 A1
IOPIN -1856 -208 In
FLAG -1936 -48 0
FLAG -1856 -48 0
FLAG -1616 -48 0
FLAG -2016 -48 0
FLAG -1696 -48 0
FLAG -2016 -208 B2
IOPIN -2016 -208 In
FLAG -1776 -48 0
FLAG -1392 -64 0
SYMBOL voltage -1584 -560 R0
WINDOW 123 0 0 Left 0
WINDOW 39 0 0 Left 0
SYMATTR InstName V1
SYMATTR Value 1
SYMBOL voltage -1392 -160 R0
WINDOW 123 0 0 Left 0
WINDOW 39 0 0 Left 0
WINDOW 3 24 44 Left 2
SYMATTR InstName V2
SYMATTR Value 1
SYMBOL voltage -1280 -160 R0
WINDOW 123 0 0 Left 0
WINDOW 39 0 0 Left 0
SYMATTR InstName V4
SYMATTR Value PULSE(0 1 0 10p 10p 1n 2n)
SYMBOL comp4 -1216 -480 R0
SYMATTR InstName X1
SYMBOL voltage -1936 -144 R0
WINDOW 123 0 0 Left 0
WINDOW 39 0 0 Left 0
SYMATTR InstName V10
SYMATTR Value 1
SYMBOL voltage -1856 -144 R0
WINDOW 123 0 0 Left 0
WINDOW 39 0 0 Left 0
SYMATTR InstName V11
SYMATTR Value 1
SYMBOL voltage -1616 -144 R0
WINDOW 123 0 0 Left 0
WINDOW 39 0 0 Left 0
SYMATTR InstName V12
SYMATTR Value 1
SYMBOL voltage -2016 -144 R0
WINDOW 123 0 0 Left 0
WINDOW 39 0 0 Left 0
SYMATTR InstName V13
SYMATTR Value 1
SYMBOL voltage -1696 -144 R0
WINDOW 123 0 0 Left 0
WINDOW 39 0 0 Left 0
SYMATTR InstName V15
SYMATTR Value 1
SYMBOL voltage -1776 -144 R0
WINDOW 123 0 0 Left 0
WINDOW 39 0 0 Left 0
SYMATTR InstName V16
SYMATTR Value 1
TEXT -2046 38 Left 2 !.tran 0 2n 0n
