Version 4
SHEET 1 880 748
WIRE -336 -784 -352 -784
WIRE -336 -752 -336 -784
WIRE -304 -752 -336 -752
WIRE -176 -752 -192 -752
WIRE -192 -736 -192 -752
WIRE -192 -736 -240 -736
WIRE 112 -736 -96 -736
WIRE -304 -720 -336 -720
WIRE -192 -720 -192 -736
WIRE -176 -720 -192 -720
WIRE -336 -704 -336 -720
WIRE -336 -704 -352 -704
WIRE -336 -640 -352 -640
WIRE -336 -608 -336 -640
WIRE -304 -608 -336 -608
WIRE -176 -608 -192 -608
WIRE -192 -592 -192 -608
WIRE -192 -592 -240 -592
WIRE 112 -592 -96 -592
WIRE -304 -576 -336 -576
WIRE -192 -576 -192 -592
WIRE -176 -576 -192 -576
WIRE -336 -560 -336 -576
WIRE -336 -560 -352 -560
WIRE -304 -432 -320 -432
WIRE -320 -416 -320 -432
WIRE -320 -416 -352 -416
WIRE -16 -416 -224 -416
WIRE -320 -400 -320 -416
WIRE -304 -400 -320 -400
WIRE -304 -320 -320 -320
WIRE -320 -304 -320 -320
WIRE -320 -304 -352 -304
WIRE -16 -304 -224 -304
WIRE -320 -288 -320 -304
WIRE -304 -288 -320 -288
WIRE -304 -208 -320 -208
WIRE -320 -192 -320 -208
WIRE -320 -192 -352 -192
WIRE -16 -192 -224 -192
WIRE -320 -176 -320 -192
WIRE -304 -176 -320 -176
WIRE -304 -96 -320 -96
WIRE -320 -80 -320 -96
WIRE -320 -80 -352 -80
WIRE -16 -80 -224 -80
WIRE -320 -64 -320 -80
WIRE -304 -64 -320 -64
WIRE -624 0 -624 -64
WIRE -720 32 -720 -48
WIRE -832 80 -832 0
WIRE -928 112 -928 16
WIRE -288 352 -336 352
WIRE 80 368 -208 368
WIRE -288 384 -336 384
WIRE 80 448 80 368
WIRE 128 448 80 448
WIRE 288 464 208 464
WIRE 128 480 80 480
WIRE 0 528 -304 528
WIRE 80 544 80 480
WIRE 0 560 -64 560
WIRE -272 624 -320 624
WIRE -144 624 -160 624
WIRE -160 640 -160 624
WIRE -160 640 -192 640
WIRE -64 640 -64 560
WIRE -272 656 -320 656
WIRE -160 656 -160 640
WIRE -144 656 -160 656
FLAG -16 -304 not_b0
FLAG -352 -304 B0
IOPIN -352 -304 In
FLAG -16 -416 not_a0
FLAG -352 -416 A0
IOPIN -352 -416 In
FLAG -608 -288 0
FLAG -608 -368 vdd
FLAG -272 -464 vdd
FLAG -272 -352 vdd
FLAG 112 -592 a0_eq_b0
FLAG -352 -640 A0
IOPIN -352 -640 In
FLAG -144 -640 vdd
FLAG -352 -560 B0
IOPIN -352 -560 In
FLAG -272 -624 vdd
FLAG -320 624 A0
IOPIN -320 624 In
FLAG -320 656 not_b0
FLAG 112 -736 a1_eq_b1
FLAG -352 -784 A1
IOPIN -352 -784 In
FLAG -144 -784 vdd
FLAG -352 -704 B1
IOPIN -352 -704 In
FLAG -272 -768 vdd
FLAG -16 -80 not_b1
FLAG -352 -80 B1
IOPIN -352 -80 In
FLAG -16 -192 not_a1
FLAG -352 -192 A1
IOPIN -352 -192 In
FLAG -272 -240 vdd
FLAG -272 -128 vdd
FLAG -336 352 A1
IOPIN -336 352 In
FLAG -336 384 not_b1
FLAG -304 528 a1_eq_b1
FLAG 288 464 a_greater_b_2bit
FLAG -720 112 0
FLAG -624 80 0
FLAG -720 -48 A1
IOPIN -720 -48 In
FLAG -624 -64 A0
IOPIN -624 -64 In
FLAG -928 192 0
FLAG -832 160 0
FLAG -928 16 B1
IOPIN -928 16 In
FLAG -832 0 B0
IOPIN -832 0 In
FLAG -256 320 vdd
FLAG -240 592 vdd
FLAG -112 592 vdd
FLAG 32 496 vdd
FLAG 160 416 vdd
SYMBOL nand 32 544 R0
SYMATTR InstName X2
SYMBOL nand 160 464 R0
SYMATTR InstName X3
SYMBOL nand -272 -304 R0
SYMATTR InstName X5
SYMBOL nand -272 -416 R0
SYMATTR InstName X7
SYMBOL voltage -608 -384 R0
WINDOW 123 0 0 Left 0
WINDOW 39 0 0 Left 0
SYMATTR InstName V1
SYMATTR Value 1
SYMBOL nand -144 -592 R0
SYMATTR InstName X9
SYMBOL xor -272 -592 R0
SYMATTR InstName X10
SYMBOL nand -240 640 R0
SYMATTR InstName X11
SYMBOL nand -112 640 R0
SYMATTR InstName X12
SYMBOL nand -144 -736 R0
SYMATTR InstName X14
SYMBOL xor -272 -736 R0
SYMATTR InstName X15
SYMBOL nand -272 -80 R0
SYMATTR InstName X17
SYMBOL nand -272 -192 R0
SYMATTR InstName X19
SYMBOL nand -256 368 R0
SYMATTR InstName X20
SYMBOL voltage -624 -16 R0
WINDOW 123 0 0 Left 0
WINDOW 39 0 0 Left 0
SYMATTR InstName V2
SYMATTR Value PULSE(0 1 0 10p 10p 8n 16n)
SYMBOL voltage -720 16 R0
WINDOW 123 0 0 Left 0
WINDOW 39 0 0 Left 0
SYMATTR InstName V3
SYMATTR Value PULSE(0 1 0 10p 10p 4n 8n)
SYMBOL voltage -832 64 R0
WINDOW 123 0 0 Left 0
WINDOW 39 0 0 Left 0
SYMATTR InstName V4
SYMATTR Value PULSE(0 1 0 10p 10p 2n 4n)
SYMBOL voltage -928 96 R0
WINDOW 123 0 0 Left 0
WINDOW 39 0 0 Left 0
SYMATTR InstName V5
SYMATTR Value PULSE(0 1 0 10p 10p 1n 2n)
TEXT -256 712 Left 2 ;a0 AND NOT b0
TEXT -360 424 Left 2 ;a1 NAND NOT b1
TEXT -998 732 Left 2 !.tran 16n
