Version 4
SHEET 1 1260 1544
WIRE -1280 -608 -1392 -608
WIRE -1296 -576 -1392 -576
WIRE -1312 -544 -1392 -544
WIRE -1280 -544 -1280 -608
WIRE -1264 -544 -1280 -544
WIRE -1216 -544 -1216 -576
WIRE -1296 -528 -1296 -576
WIRE -1264 -528 -1296 -528
WIRE -1328 -512 -1392 -512
WIRE -1312 -512 -1312 -544
WIRE -1264 -512 -1312 -512
WIRE -1328 -496 -1328 -512
WIRE -1264 -496 -1328 -496
WIRE -1040 -496 -1168 -496
WIRE -1040 -480 -1168 -480
WIRE -1264 -464 -1392 -464
WIRE -1040 -464 -1168 -464
WIRE -1264 -448 -1376 -448
WIRE -1376 -432 -1376 -448
WIRE -1376 -432 -1392 -432
WIRE -1264 -432 -1360 -432
WIRE -1264 -416 -1344 -416
WIRE -1360 -400 -1360 -432
WIRE -1360 -400 -1392 -400
WIRE -1344 -368 -1344 -416
WIRE -1344 -368 -1392 -368
WIRE -2256 -128 -2256 -208
WIRE -2176 -128 -2176 -208
WIRE -2096 -128 -2096 -208
WIRE -2016 -128 -2016 -208
WIRE -1936 -128 -1936 -208
WIRE -1856 -128 -1856 -208
WIRE -1776 -128 -1776 -208
WIRE -1696 -128 -1696 -208
WIRE -1616 -128 -1616 -208
FLAG -1584 -464 0
FLAG -1584 -544 vdd
FLAG -1136 96 0
FLAG -944 0 0
FLAG -1136 -64 A1
IOPIN -1136 -64 In
FLAG -944 -144 A0
IOPIN -944 -144 In
FLAG -1040 64 0
FLAG -864 -32 0
FLAG -1040 -112 B1
IOPIN -1040 -112 In
FLAG -864 -192 B0
IOPIN -864 -192 In
FLAG -1312 192 0
FLAG -1312 32 A2
IOPIN -1312 32 In
FLAG -1216 160 0
FLAG -1216 -16 B2
IOPIN -1216 -16 In
FLAG -1504 256 0
FLAG -1504 96 A3
IOPIN -1504 96 In
FLAG -1408 224 0
FLAG -1408 48 B3
IOPIN -1408 48 In
FLAG -1392 -464 B0
IOPIN -1392 -464 In
FLAG -1392 -432 B1
IOPIN -1392 -432 In
FLAG -1392 -400 B2
IOPIN -1392 -400 In
FLAG -1392 -368 B3
IOPIN -1392 -368 In
FLAG -1392 -608 B0
IOPIN -1392 -608 In
FLAG -1392 -576 A1
IOPIN -1392 -576 In
FLAG -1392 -544 A2
IOPIN -1392 -544 In
FLAG -1392 -512 A3
IOPIN -1392 -512 In
FLAG -1216 -576 vdd
FLAG -1040 -496 a_gr_b
FLAG -1040 -480 b_gr_a
FLAG -1040 -464 a_eq_b
FLAG -2256 -208 A1
IOPIN -2256 -208 In
FLAG -1696 -208 A0
IOPIN -1696 -208 In
FLAG -1776 -208 B1
IOPIN -1776 -208 In
FLAG -1616 -208 B0
IOPIN -1616 -208 In
FLAG -2096 -208 A2
IOPIN -2096 -208 In
FLAG -2176 -208 B2
IOPIN -2176 -208 In
FLAG -1936 -208 A3
IOPIN -1936 -208 In
FLAG -1856 -208 B3
IOPIN -1856 -208 In
FLAG -1936 -48 0
FLAG -1856 -48 0
FLAG -2096 -48 0
FLAG -2016 -48 0
FLAG -2256 -48 0
FLAG -2176 -48 0
FLAG -2016 -208 B3
IOPIN -2016 -208 In
FLAG -1776 -48 0
FLAG -1696 -48 0
FLAG -1616 -48 0
SYMBOL voltage -1584 -560 R0
WINDOW 123 0 0 Left 0
WINDOW 39 0 0 Left 0
SYMATTR InstName V1
SYMATTR Value 1
SYMBOL voltage -944 -96 R0
WINDOW 123 0 0 Left 0
WINDOW 39 0 0 Left 0
SYMATTR InstName V2
SYMATTR Value PULSE(0 1 0 10p 10p 2n 4n)
SYMBOL voltage -1136 0 R0
WINDOW 123 0 0 Left 0
WINDOW 39 0 0 Left 0
SYMATTR InstName V3
SYMATTR Value PULSE(0 1 0 10p 10p 8n 16n)
SYMBOL voltage -864 -128 R0
WINDOW 123 0 0 Left 0
WINDOW 39 0 0 Left 0
SYMATTR InstName V4
SYMATTR Value PULSE(0 1 0 10p 10p 1n 2n)
SYMBOL voltage -1040 -32 R0
WINDOW 123 0 0 Left 0
WINDOW 39 0 0 Left 0
SYMATTR InstName V5
SYMATTR Value PULSE(0 1 0 10p 10p 4n 8n)
SYMBOL voltage -1312 96 R0
WINDOW 123 0 0 Left 0
WINDOW 39 0 0 Left 0
SYMATTR InstName V6
SYMATTR Value PULSE(0 1 0 10p 10p 32n 64n)
SYMBOL voltage -1216 64 R0
WINDOW 123 0 0 Left 0
WINDOW 39 0 0 Left 0
SYMATTR InstName V7
SYMATTR Value PULSE(0 1 0 10p 10p 16n 32n)
SYMBOL voltage -1504 160 R0
WINDOW 123 0 0 Left 0
WINDOW 39 0 0 Left 0
SYMATTR InstName V8
SYMATTR Value PULSE(0 1 0 10p 10p 128n 256n)
SYMBOL voltage -1408 128 R0
WINDOW 123 0 0 Left 0
WINDOW 39 0 0 Left 0
SYMATTR InstName V9
SYMATTR Value PULSE(0 1 0 10p 10p 64n 128n)
SYMBOL comp4 -1216 -480 R0
SYMATTR InstName X1
SYMBOL voltage -1936 -144 R0
WINDOW 123 0 0 Left 0
WINDOW 39 0 0 Left 0
SYMATTR InstName V10
SYMATTR Value 1
SYMBOL voltage -1856 -144 R0
WINDOW 123 0 0 Left 0
WINDOW 39 0 0 Left 0
SYMATTR InstName V11
SYMATTR Value 0
SYMBOL voltage -2096 -144 R0
WINDOW 123 0 0 Left 0
WINDOW 39 0 0 Left 0
SYMATTR InstName V12
SYMATTR Value 0
SYMBOL voltage -2016 -144 R0
WINDOW 123 0 0 Left 0
WINDOW 39 0 0 Left 0
SYMATTR InstName V13
SYMATTR Value 1
SYMBOL voltage -2256 -144 R0
WINDOW 123 0 0 Left 0
WINDOW 39 0 0 Left 0
SYMATTR InstName V14
SYMATTR Value 1
SYMBOL voltage -2176 -144 R0
WINDOW 123 0 0 Left 0
WINDOW 39 0 0 Left 0
SYMATTR InstName V15
SYMATTR Value 1
SYMBOL voltage -1776 -144 R0
WINDOW 123 0 0 Left 0
WINDOW 39 0 0 Left 0
SYMATTR InstName V16
SYMATTR Value 1
SYMBOL voltage -1696 -144 R0
WINDOW 123 0 0 Left 0
WINDOW 39 0 0 Left 0
SYMATTR InstName V17
SYMATTR Value 0
SYMBOL voltage -1616 -144 R0
WINDOW 123 0 0 Left 0
WINDOW 39 0 0 Left 0
SYMATTR InstName V18
SYMATTR Value 1
TEXT -1328 304 Left 2 !.tran 256n
