Version 4
SHEET 1 880 680
TEXT 128 56 Left 2 !.include 90nm_bulk.txt
