Version 4
SHEET 1 880 680
WIRE 256 80 256 16
WIRE 256 80 112 80
WIRE 320 80 256 80
WIRE 112 112 112 80
WIRE 320 112 320 80
WIRE 128 160 112 160
WIRE 336 160 320 160
WIRE 64 192 48 192
WIRE 272 192 256 192
WIRE 128 208 128 160
WIRE 128 208 112 208
WIRE 336 208 336 160
WIRE 336 208 320 208
WIRE 112 304 112 208
WIRE 192 304 112 304
WIRE 320 304 320 208
WIRE 320 304 192 304
WIRE 352 304 320 304
WIRE 192 336 192 304
WIRE 192 448 192 416
FLAG 48 192 A
IOPIN 48 192 In
FLAG 256 192 B
IOPIN 256 192 In
FLAG 192 448 0
FLAG 352 304 C
IOPIN 352 304 Out
FLAG 256 16 VDD
IOPIN 256 16 In
SYMBOL pmos4 64 112 R0
SYMATTR InstName M1
SYMBOL pmos4 272 112 R0
SYMATTR InstName M2
SYMBOL res 176 320 R0
SYMATTR InstName R1
SYMATTR Value 100k
