Version 4
SHEET 1 880 680
WIRE 384 208 112 208
WIRE 512 224 464 224
WIRE 640 224 512 224
WIRE 384 240 192 240
WIRE 512 240 512 224
WIRE 640 240 640 224
WIRE 512 336 512 320
WIRE 640 336 640 304
WIRE 192 384 192 240
WIRE 112 480 112 208
WIRE 16 496 16 480
WIRE 192 512 192 464
WIRE 112 608 112 560
FLAG 192 512 0
FLAG 112 608 0
FLAG 512 336 0
FLAG 640 336 0
FLAG 16 496 0
FLAG 16 400 VDD
FLAG 416 176 VDD
SYMBOL nand 416 224 R0
SYMATTR InstName X1
SYMBOL voltage 192 368 R0
WINDOW 123 0 0 Left 0
WINDOW 39 0 0 Left 0
SYMATTR InstName pulse2T
SYMATTR Value PULSE(0 1 1n 10p 10p 1n 2n)
SYMBOL voltage 112 464 R0
WINDOW 123 0 0 Left 0
WINDOW 39 0 0 Left 0
SYMATTR InstName pulseT
SYMATTR Value PULSE(0 1 1n 10p 10p 2n 4n)
SYMBOL cap 624 240 R0
SYMATTR InstName C1
SYMATTR Value 100f
SYMBOL res 496 224 R0
SYMATTR InstName R1
SYMATTR Value 100k
SYMBOL voltage 16 384 R0
WINDOW 123 0 0 Left 0
WINDOW 39 0 0 Left 0
SYMATTR InstName V3
SYMATTR Value 1
TEXT 128 56 Left 2 !.include 90nm_bulk.txt
TEXT 136 80 Left 2 !.tran 0 8n 0 1p
