Version 4
SHEET 1 880 884
WIRE 128 112 128 80
WIRE 128 112 112 112
WIRE 320 112 320 80
WIRE 336 112 320 112
WIRE 128 160 128 112
WIRE 128 160 112 160
WIRE 336 160 336 112
WIRE 336 160 320 160
WIRE 64 192 48 192
WIRE 272 192 256 192
WIRE 112 304 112 208
WIRE 240 304 112 304
WIRE 320 304 320 208
WIRE 320 304 240 304
WIRE 352 304 320 304
WIRE 240 320 240 304
WIRE 256 368 240 368
WIRE 192 400 176 400
WIRE 256 400 256 368
WIRE 256 400 240 400
WIRE 240 448 240 416
WIRE 256 496 240 496
WIRE 192 528 176 528
WIRE 240 544 240 528
WIRE 256 544 256 496
WIRE 256 544 240 544
WIRE 240 560 240 544
FLAG 48 192 VIN1
IOPIN 48 192 In
FLAG 256 192 VIN2
IOPIN 256 192 In
FLAG 240 560 0
FLAG 176 400 VIN1
IOPIN 176 400 In
FLAG 176 528 VIN2
IOPIN 176 528 In
FLAG 128 80 VDD
IOPIN 128 80 In
FLAG 352 304 VOUT
IOPIN 352 304 Out
FLAG 320 80 VDD
IOPIN 320 80 In
SYMBOL pmos4 64 112 R0
SYMATTR InstName M1
SYMATTR Value2 l=90n w=400n
SYMBOL pmos4 272 112 R0
SYMATTR InstName M2
SYMATTR Value2 l=90n w=400n
SYMBOL nmos4 192 320 R0
SYMATTR InstName M3
SYMATTR Value2 l=90n w=200n
SYMBOL nmos4 192 448 R0
SYMATTR InstName M4
SYMATTR Value2 l=90n w=200n
