Version 4
SHEET 1 880 680
WIRE 192 64 192 16
WIRE 384 64 192 64
WIRE 400 64 384 64
WIRE 192 128 192 64
WIRE 384 128 384 64
WIRE 208 176 192 176
WIRE 400 176 384 176
WIRE 144 208 128 208
WIRE 336 208 320 208
WIRE 192 240 192 224
WIRE 208 240 208 176
WIRE 208 240 192 240
WIRE 384 240 384 224
WIRE 400 240 400 176
WIRE 400 240 384 240
WIRE 192 256 192 240
WIRE 384 256 384 240
FLAG 128 208 A
IOPIN 128 208 In
FLAG 320 208 B
IOPIN 320 208 In
FLAG 192 256 0
FLAG 384 256 0
FLAG 400 64 C
IOPIN 400 64 Out
FLAG 192 16 VDD
IOPIN 192 16 In
SYMBOL pmos4 144 128 R0
SYMATTR InstName M1
SYMBOL pmos4 336 128 R0
SYMATTR InstName M2
