Version 4
SHEET 1 880 680
WIRE 384 208 112 208
WIRE 560 224 464 224
WIRE 640 224 560 224
WIRE 384 240 192 240
WIRE 560 240 560 224
WIRE 640 240 640 224
WIRE 192 272 192 240
WIRE 560 336 560 320
WIRE 640 336 640 304
WIRE 112 368 112 208
WIRE 192 400 192 352
WIRE 112 496 112 448
FLAG 192 400 0
FLAG 112 496 0
FLAG 560 336 0
FLAG 640 336 0
SYMBOL nand 416 224 R0
SYMATTR InstName X1
SYMBOL voltage 192 256 R0
WINDOW 123 0 0 Left 0
WINDOW 39 0 0 Left 0
SYMATTR InstName V1
SYMATTR Value PULSE(0 1 1n 10p 10p 4n 8n)
SYMBOL voltage 112 352 R0
WINDOW 123 0 0 Left 0
WINDOW 39 0 0 Left 0
SYMATTR InstName V2
SYMATTR Value PULSE(0 1 1n 10p 10p 2n 4n)
SYMBOL cap 624 240 R0
SYMATTR InstName C1
SYMATTR Value 100f
SYMBOL res 544 224 R0
SYMATTR InstName R1
SYMATTR Value 100k
TEXT 128 56 Left 2 !.include 90nm_bulk.txt
TEXT 136 80 Left 2 !.tran 0 8n 0 1p
