Version 4
SHEET 1 880 680
WIRE 224 64 224 -32
WIRE 192 80 48 80
WIRE 304 96 256 96
WIRE 192 112 128 112
WIRE 128 176 128 112
WIRE -48 208 -48 176
WIRE 48 208 48 80
FLAG 304 96 VOUT
IOPIN 304 96 Out
FLAG -48 176 VDD
FLAG 224 -32 VDD
FLAG -48 288 0
FLAG 48 288 0
FLAG 128 256 0
SYMBOL xor 224 96 R0
SYMATTR InstName X1
SYMBOL voltage 128 160 R0
WINDOW 123 0 0 Left 0
WINDOW 39 0 0 Left 0
SYMATTR InstName V2
SYMATTR Value PULSE(0 1 0 10p 10p 4n 8n)
SYMBOL voltage 48 192 R0
WINDOW 123 0 0 Left 0
WINDOW 39 0 0 Left 0
SYMATTR InstName V1
SYMATTR Value PULSE(0 1 0 10p 10p 2n 4n)
SYMBOL voltage -48 192 R0
WINDOW 123 0 0 Left 0
WINDOW 39 0 0 Left 0
SYMATTR InstName V3
SYMATTR Value 1
TEXT -82 308 Left 2 !.tran 8n
