Version 4
SHEET 1 880 680
WIRE -304 -176 -368 -176
WIRE -48 0 -336 0
WIRE 96 16 32 16
WIRE -48 32 -96 32
WIRE -336 96 -336 0
WIRE -336 96 -384 96
WIRE -256 96 -336 96
WIRE 96 96 96 16
WIRE 144 96 96 96
WIRE -96 112 -96 32
WIRE -96 112 -176 112
WIRE 304 112 224 112
WIRE -336 128 -384 128
WIRE -256 128 -336 128
WIRE 144 128 96 128
WIRE -96 224 -96 112
WIRE -48 224 -96 224
WIRE 96 240 96 128
WIRE 96 240 32 240
WIRE -336 256 -336 128
WIRE -48 256 -336 256
FLAG -384 96 A
IOPIN -384 96 In
FLAG -384 128 B
IOPIN -384 128 In
FLAG -368 -176 VDD
IOPIN -368 -176 In
FLAG -304 -176 vdd
FLAG -16 -32 vdd
FLAG -224 64 vdd
FLAG -16 192 vdd
FLAG 176 64 vdd
FLAG 304 112 VOUT
IOPIN 304 112 Out
SYMBOL nand 176 112 R0
SYMATTR InstName X1
SYMBOL nand -16 240 R0
SYMATTR InstName X2
SYMBOL nand -16 16 R0
SYMATTR InstName X3
SYMBOL nand -224 112 R0
SYMATTR InstName X4
